
Compatibility modes selected: hs


Circuit: ** sch_path: /home/simon/code/asic/analog/test/test_low_pvt_source_mc.sch

option SCALE: Scale is set to 1e-06 for instance and model parameters
Doing analysis at TEMP = 0.000000 and TNOM = 27.000000


No. of Data Rows : 1
Doing analysis at TEMP = 0.000000 and TNOM = 27.000000

Doing analysis at TEMP = 0.000000 and TNOM = 27.000000

Doing analysis at TEMP = 30.000000 and TNOM = 27.000000


No. of Data Rows : 1
Doing analysis at TEMP = 30.000000 and TNOM = 27.000000

Doing analysis at TEMP = 30.000000 and TNOM = 27.000000

Doing analysis at TEMP = 60.000000 and TNOM = 27.000000


No. of Data Rows : 1
Doing analysis at TEMP = 60.000000 and TNOM = 27.000000

Doing analysis at TEMP = 60.000000 and TNOM = 27.000000

Doing analysis at TEMP = 90.000000 and TNOM = 27.000000


No. of Data Rows : 1
Doing analysis at TEMP = 90.000000 and TNOM = 27.000000

Doing analysis at TEMP = 90.000000 and TNOM = 27.000000

Reset re-loads circuit ** sch_path: /home/simon/code/asic/analog/test/test_low_pvt_source_mc.sch

Circuit: ** sch_path: /home/simon/code/asic/analog/test/test_low_pvt_source_mc.sch

option SCALE: Scale is set to 1e-06 for instance and model parameters
Doing analysis at TEMP = 0.000000 and TNOM = 27.000000


No. of Data Rows : 1
Doing analysis at TEMP = 0.000000 and TNOM = 27.000000

Doing analysis at TEMP = 0.000000 and TNOM = 27.000000

Doing analysis at TEMP = 30.000000 and TNOM = 27.000000


No. of Data Rows : 1
Doing analysis at TEMP = 30.000000 and TNOM = 27.000000

Doing analysis at TEMP = 30.000000 and TNOM = 27.000000

Doing analysis at TEMP = 60.000000 and TNOM = 27.000000


No. of Data Rows : 1
Doing analysis at TEMP = 60.000000 and TNOM = 27.000000

Doing analysis at TEMP = 60.000000 and TNOM = 27.000000

Doing analysis at TEMP = 90.000000 and TNOM = 27.000000


No. of Data Rows : 1
Doing analysis at TEMP = 90.000000 and TNOM = 27.000000

Doing analysis at TEMP = 90.000000 and TNOM = 27.000000

Reset re-loads circuit ** sch_path: /home/simon/code/asic/analog/test/test_low_pvt_source_mc.sch

Circuit: ** sch_path: /home/simon/code/asic/analog/test/test_low_pvt_source_mc.sch

option SCALE: Scale is set to 1e-06 for instance and model parameters
Doing analysis at TEMP = 0.000000 and TNOM = 27.000000


No. of Data Rows : 1
Doing analysis at TEMP = 0.000000 and TNOM = 27.000000

Doing analysis at TEMP = 0.000000 and TNOM = 27.000000

Doing analysis at TEMP = 30.000000 and TNOM = 27.000000


No. of Data Rows : 1
Doing analysis at TEMP = 30.000000 and TNOM = 27.000000

Doing analysis at TEMP = 30.000000 and TNOM = 27.000000

Doing analysis at TEMP = 60.000000 and TNOM = 27.000000


No. of Data Rows : 1
Doing analysis at TEMP = 60.000000 and TNOM = 27.000000

Doing analysis at TEMP = 60.000000 and TNOM = 27.000000

Doing analysis at TEMP = 90.000000 and TNOM = 27.000000


No. of Data Rows : 1
Doing analysis at TEMP = 90.000000 and TNOM = 27.000000

Doing analysis at TEMP = 90.000000 and TNOM = 27.000000

Reset re-loads circuit ** sch_path: /home/simon/code/asic/analog/test/test_low_pvt_source_mc.sch

Circuit: ** sch_path: /home/simon/code/asic/analog/test/test_low_pvt_source_mc.sch

option SCALE: Scale is set to 1e-06 for instance and model parameters
